test_network/Sim_files_190128_OK_V0/RunDss/fuse_indexed.txt
!New Line.fuse1 Bus1=585.1.2.3.4 Bus2=2173.1.2.3.4 phases=4 Linecode=102 Length=0.5 Units=m
New Line.fuse2 Bus1=2677.1.2.3.4 Bus2=1099.1.2.3.4 phases=4 Linecode=102 Length=0.5 Units=m
!New Line.fuse3 Bus1=813.1.2.3.4 Bus2=1931.1.2.3.4 phases=4 Linecode=102 Length=0.5 Units=m
New Line.fuse4 Bus1=1540.1.2.3.4 Bus2=2724.1.2.3.4 phases=4 Linecode=102 Length=0.5 Units=m
New Line.fuse5 Bus1=2727.1.2.3.4 Bus2=1526.1.2.3.4 phases=4 Linecode=102 Length=0.5 Units=m
New Line.fuse6 Bus1=2725.1.2.3.4 Bus2=1527.1.2.3.4 phases=4 Linecode=102 Length=0.5 Units=m
!New Line.fuse7 Bus1=819.1.2.3.4 Bus2=859.1.2.3.4 phases=4 Linecode=102 Length=0.5 Units=m
!New Line.fuse8 Bus1=825.1.2.3.4 Bus2=1719.1.2.3.4 phases=4 Linecode=102 Length=0.5 Units=m
!New Line.fuse9 Bus1=1933.1.2.3.4 Bus2=832.1.2.3.4 phases=4 Linecode=102 Length=0.5 Units=m
New Line.fuse10 Bus1=1460.1.2.3.4 Bus2=2713.1.2.3.4 phases=4 Linecode=102 Length=0.5 Units=m
!New Line.fuse11 Bus1=1466.1.2.3.4 Bus2=1456.1.2.3.4 phases=4 Linecode=102 Length=0.5 Units=m
New Line.fuse12 Bus1=1458.1.2.3.4 Bus2=2714.1.2.3.4 phases=4 Linecode=102 Length=0.5 Units=m
New Line.fuse13 Bus1=646.1.2.3.4 Bus2=2631.1.2.3.4 phases=4 Linecode=102 Length=0.5 Units=m
!New Line.fuse14 Bus1=651.1.2.3.4 Bus2=2303.1.2.3.4 phases=4 Linecode=102 Length=0.5 Units=m
New Line.fuse15 Bus1=2632.1.2.3.4 Bus2=652.1.2.3.4 phases=4 Linecode=102 Length=0.5 Units=m
!New Line.fuse16 Bus1=229.1.2.3.4 Bus2=65.1.2.3.4 phases=4 Linecode=102 Length=0.5 Units=m
New Line.fuse17 Bus1=1471.1.2.3.4 Bus2=2717.1.2.3.4 phases=4 Linecode=102 Length=0.5 Units=m
New Line.fuse18 Bus1=2656.1.2.3.4 Bus2=903.1.2.3.4 phases=4 Linecode=102 Length=0.5 Units=m
!New Line.fuse19 Bus1=284.1.2.3.4 Bus2=2521.1.2.3.4 phases=4 Linecode=102 Length=0.5 Units=m
!New Line.fuse20 Bus1=1963.1.2.3.4 Bus2=848.1.2.3.4 phases=4 Linecode=102 Length=0.5 Units=m
!New Line.fuse21 Bus1=1644.1.2.3.4 Bus2=838.1.2.3.4 phases=4 Linecode=102 Length=0.5 Units=m
New Line.fuse22 Bus1=2512.1.2.3.4 Bus2=2870.1.2.3.4 phases=4 Linecode=102 Length=0.5 Units=m
New Line.fuse23 Bus1=2841.1.2.3.4 Bus2=2250.1.2.3.4 phases=4 Linecode=102 Length=0.5 Units=m
!New Line.fuse24 Bus1=2255.1.2.3.4 Bus2=2513.1.2.3.4 phases=4 Linecode=102 Length=0.5 Units=m
New Line.fuse25 Bus1=2252.1.2.3.4 Bus2=2842.1.2.3.4 phases=4 Linecode=102 Length=0.5 Units=m
New Line.fuse26 Bus1=2254.1.2.3.4 Bus2=2843.1.2.3.4 phases=4 Linecode=102 Length=0.5 Units=m
!New Line.fuse27 Bus1=2355.1.2.3.4 Bus2=2520.1.2.3.4 phases=4 Linecode=102 Length=0.5 Units=m
New Line.fuse28 Bus1=2855.1.2.3.4 Bus2=2356.1.2.3.4 phases=4 Linecode=102 Length=0.5 Units=m
New Line.fuse29 Bus1=334.1.2.3.4 Bus2=2599.1.2.3.4 phases=4 Linecode=102 Length=0.5 Units=m
!New Line.fuse30 Bus1=1430.1.2.3.4 Bus2=1436.1.2.3.4 phases=4 Linecode=102 Length=0.5 Units=m
New Line.fuse31 Bus1=960.1.2.3.4 Bus2=2659.1.2.3.4 phases=4 Linecode=102 Length=0.5 Units=m
New Line.fuse32 Bus1=319.1.2.3.4 Bus2=2595.1.2.3.4 phases=4 Linecode=102 Length=0.5 Units=m
!New Line.fuse33 Bus1=1081.1.2.3.4 Bus2=316.1.2.3.4 phases=4 Linecode=102 Length=0.5 Units=m
New Line.fuse34 Bus1=2596.1.2.3.4 Bus2=317.1.2.3.4 phases=4 Linecode=102 Length=0.5 Units=m
!New Line.fuse35 Bus1=339.1.2.3.4 Bus2=.1.2.3.4 phases=4 Linecode=102 Length=0.5 Units=m
New Line.fuse36 Bus1=1780.1.2.3.4 Bus2=2762.1.2.3.4 phases=4 Linecode=102 Length=0.5 Units=m
New Line.fuse37 Bus1=2763.1.2.3.4 Bus2=1784.1.2.3.4 phases=4 Linecode=102 Length=0.5 Units=m
New Line.fuse38 Bus1=2761.1.2.3.4 Bus2=1783.1.2.3.4 phases=4 Linecode=102 Length=0.5 Units=m
!New Line.fuse39 Bus1=568.1.2.3.4 Bus2=292.1.2.3.4 phases=4 Linecode=102 Length=0.5 Units=m
!New Line.fuse40 Bus1=1043.1.2.3.4 Bus2=325.1.2.3.4 phases=4 Linecode=102 Length=0.5 Units=m
New Line.fuse41 Bus1=2669.1.2.3.4 Bus2=1057.1.2.3.4 phases=4 Linecode=102 Length=0.5 Units=m
New Line.fuse42 Bus1=2672.1.2.3.4 Bus2=1059.1.2.3.4 phases=4 Linecode=102 Length=0.5 Units=m
New Line.fuse43 Bus1=1064.1.2.3.4 Bus2=2670.1.2.3.4 phases=4 Linecode=102 Length=0.5 Units=m
New Line.fuse44 Bus1=2671.1.2.3.4 Bus2=1061.1.2.3.4 phases=4 Linecode=102 Length=0.5 Units=m
!New Line.fuse45 Bus1=1683.1.2.3.4 Bus2=1681.1.2.3.4 phases=4 Linecode=102 Length=0.5 Units=m
!New Line.fuse46 Bus1=2102.1.2.3.4 Bus2=617.1.2.3.4 phases=4 Linecode=102 Length=0.5 Units=m
New Line.fuse47 Bus1=1387.1.2.3.4 Bus2=2703.1.2.3.4 phases=4 Linecode=102 Length=0.5 Units=m
!New Line.fuse48 Bus1=183.1.2.3.4 Bus2=1385.1.2.3.4 phases=4 Linecode=102 Length=0.5 Units=m
New Line.fuse49 Bus1=1384.1.2.3.4 Bus2=2704.1.2.3.4 phases=4 Linecode=102 Length=0.5 Units=m
New Line.fuse50 Bus1=2136.1.2.3.4 Bus2=2819.1.2.3.4 phases=4 Linecode=102 Length=0.5 Units=m
!New Line.fuse51 Bus1=923.1.2.3.4 Bus2=1736.1.2.3.4 phases=4 Linecode=102 Length=0.5 Units=m
New Line.fuse52 Bus1=1734.1.2.3.4 Bus2=2753.1.2.3.4 phases=4 Linecode=102 Length=0.5 Units=m
New Line.fuse53 Bus1=2754.1.2.3.4 Bus2=1738.1.2.3.4 phases=4 Linecode=102 Length=0.5 Units=m
New Line.fuse54 Bus1=2786.1.2.3.4 Bus2=1871.1.2.3.4 phases=4 Linecode=102 Length=0.5 Units=m
New Line.fuse55 Bus1=1870.1.2.3.4 Bus2=2787.1.2.3.4 phases=4 Linecode=102 Length=0.5 Units=m
New Line.fuse56 Bus1=2788.1.2.3.4 Bus2=1873.1.2.3.4 phases=4 Linecode=102 Length=0.5 Units=m
New Line.fuse57 Bus1=1851.1.2.3.4 Bus2=2782.1.2.3.4 phases=4 Linecode=102 Length=0.5 Units=m
New Line.fuse58 Bus1=2781.1.2.3.4 Bus2=1855.1.2.3.4 phases=4 Linecode=102 Length=0.5 Units=m
New Line.fuse59 Bus1=1543.1.2.3.4 Bus2=2729.1.2.3.4 phases=4 Linecode=102 Length=0.5 Units=m
New Line.fuse60 Bus1=2783.1.2.3.4 Bus2=1856.1.2.3.4 phases=4 Linecode=102 Length=0.5 Units=m
New Line.fuse61 Bus1=2784.1.2.3.4 Bus2=1857.1.2.3.4 phases=4 Linecode=102 Length=0.5 Units=m
!New Line.fuse62 Bus1=744.1.2.3.4 Bus2=614.1.2.3.4 phases=4 Linecode=102 Length=0.5 Units=m
New Line.fuse63 Bus1=925.1.2.3.4 Bus2=2653.1.2.3.4 phases=4 Linecode=102 Length=0.5 Units=m
New Line.fuse64 Bus1=2654.1.2.3.4 Bus2=904.1.2.3.4 phases=4 Linecode=102 Length=0.5 Units=m
New Line.fuse65 Bus1=1342.1.2.3.4 Bus2=2697.1.2.3.4 phases=4 Linecode=102 Length=0.5 Units=m
New Line.fuse66 Bus1=935.1.2.3.4 Bus2=2658.1.2.3.4 phases=4 Linecode=102 Length=0.5 Units=m
New Line.fuse67 Bus1=1835.1.2.3.4 Bus2=2776.1.2.3.4 phases=4 Linecode=102 Length=0.5 Units=m
!New Line.fuse68 Bus1=1919.1.2.3.4 Bus2=1838.1.2.3.4 phases=4 Linecode=102 Length=0.5 Units=m
New Line.fuse69 Bus1=2777.1.2.3.4 Bus2=1840.1.2.3.4 phases=4 Linecode=102 Length=0.5 Units=m
New Line.fuse70 Bus1=2778.1.2.3.4 Bus2=1839.1.2.3.4 phases=4 Linecode=102 Length=0.5 Units=m
New Line.fuse71 Bus1=1748.1.2.3.4 Bus2=2755.1.2.3.4 phases=4 Linecode=102 Length=0.5 Units=m
!New Line.fuse72 Bus1=992.1.2.3.4 Bus2=1745.1.2.3.4 phases=4 Linecode=102 Length=0.5 Units=m
New Line.fuse73 Bus1=2756.1.2.3.4 Bus2=1744.1.2.3.4 phases=4 Linecode=102 Length=0.5 Units=m
!New Line.fuse74 Bus1=890.1.2.3.4 Bus2=990.1.2.3.4 phases=4 Linecode=102 Length=0.5 Units=m
New Line.fuse75 Bus1=2030.1.2.3.4 Bus2=2804.1.2.3.4 phases=4 Linecode=102 Length=0.5 Units=m
!New Line.fuse76 Bus1=2020.1.2.3.4 Bus2=2026.1.2.3.4 phases=4 Linecode=102 Length=0.5 Units=m
!New Line.fuse77 Bus1=435.1.2.3.4 Bus2=1005.1.2.3.4 phases=4 Linecode=102 Length=0.5 Units=m
New Line.fuse78 Bus1=2346.1.2.3.4 Bus2=2856.1.2.3.4 phases=4 Linecode=102 Length=0.5 Units=m
!New Line.fuse79 Bus1=2366.1.2.3.4 Bus2=2348.1.2.3.4 phases=4 Linecode=102 Length=0.5 Units=m
New Line.fuse80 Bus1=2857.1.2.3.4 Bus2=2350.1.2.3.4 phases=4 Linecode=102 Length=0.5 Units=m
!New Line.fuse81 Bus1=154.1.2.3.4 Bus2=1014.1.2.3.4 phases=4 Linecode=102 Length=0.5 Units=m
New Line.fuse82 Bus1=1886.1.2.3.4 Bus2=2791.1.2.3.4 phases=4 Linecode=102 Length=0.5 Units=m
!New Line.fuse83 Bus1=1914.1.2.3.4 Bus2=1890.1.2.3.4 phases=4 Linecode=102 Length=0.5 Units=m
New Line.fuse84 Bus1=2793.1.2.3.4 Bus2=1888.1.2.3.4 phases=4 Linecode=102 Length=0.5 Units=m
New Line.fuse85 Bus1=2792.1.2.3.4 Bus2=1891.1.2.3.4 phases=4 Linecode=102 Length=0.5 Units=m
New Line.fuse86 Bus1=443.1.2.3.4 Bus2=2614.1.2.3.4 phases=4 Linecode=102 Length=0.5 Units=m
New Line.fuse87 Bus1=446.1.2.3.4 Bus2=2615.1.2.3.4 phases=4 Linecode=102 Length=0.5 Units=m
!New Line.fuse88 Bus1=1700.1.2.3.4 Bus2=1237.1.2.3.4 phases=4 Linecode=102 Length=0.5 Units=m
!New Line.fuse89 Bus1=1649.1.2.3.4 Bus2=1694.1.2.3.4 phases=4 Linecode=102 Length=0.5 Units=m
New Line.fuse90 Bus1=77.1.2.3.4 Bus2=2558.1.2.3.4 phases=4 Linecode=102 Length=0.5 Units=m
!New Line.fuse91 Bus1=1650.1.2.3.4 Bus2=1688.1.2.3.4 phases=4 Linecode=102 Length=0.5 Units=m
New Line.fuse92 Bus1=1671.1.2.3.4 Bus2=2743.1.2.3.4 phases=4 Linecode=102 Length=0.5 Units=m
New Line.fuse93 Bus1=81.1.2.3.4 Bus2=2559.1.2.3.4 phases=4 Linecode=102 Length=0.5 Units=m
New Line.fuse94 Bus1=87.1.2.3.4 Bus2=2560.1.2.3.4 phases=4 Linecode=102 Length=0.5 Units=m
New Line.fuse95 Bus1=2561.1.2.3.4 Bus2=90.1.2.3.4 phases=4 Linecode=102 Length=0.5 Units=m
New Line.fuse96 Bus1=1730.1.2.3.4 Bus2=2750.1.2.3.4 phases=4 Linecode=102 Length=0.5 Units=m
!New Line.fuse97 Bus1=1661.1.2.3.4 Bus2=1728.1.2.3.4 phases=4 Linecode=102 Length=0.5 Units=m
New Line.fuse98 Bus1=2751.1.2.3.4 Bus2=1727.1.2.3.4 phases=4 Linecode=102 Length=0.5 Units=m
New Line.fuse99 Bus1=1678.1.2.3.4 Bus2=2745.1.2.3.4 phases=4 Linecode=102 Length=0.5 Units=m
!New Line.fuse100 Bus1=306.1.2.3.4 Bus2=295.1.2.3.4 phases=4 Linecode=102 Length=0.5 Units=m
New Line.fuse101 Bus1=2683.1.2.3.4 Bus2=1226.1.2.3.4 phases=4 Linecode=102 Length=0.5 Units=m
New Line.fuse102 Bus1=112.1.2.3.4 Bus2=2565.1.2.3.4 phases=4 Linecode=102 Length=0.5 Units=m
New Line.fuse103 Bus1=528.1.2.3.4 Bus2=2620.1.2.3.4 phases=4 Linecode=102 Length=0.5 Units=m
New Line.fuse104 Bus1=117.1.2.3.4 Bus2=2568.1.2.3.4 phases=4 Linecode=102 Length=0.5 Units=m
New Line.fuse105 Bus1=414.1.2.3.4 Bus2=2608.1.2.3.4 phases=4 Linecode=102 Length=0.5 Units=m
!New Line.fuse106 Bus1=415.1.2.3.4 Bus2=531.1.2.3.4 phases=4 Linecode=102 Length=0.5 Units=m
New Line.fuse107 Bus1=122.1.2.3.4 Bus2=2569.1.2.3.4 phases=4 Linecode=102 Length=0.5 Units=m
New Line.fuse108 Bus1=126.1.2.3.4 Bus2=2570.1.2.3.4 phases=4 Linecode=102 Length=0.5 Units=m
!New Line.fuse109 Bus1=626.1.2.3.4 Bus2=382.1.2.3.4 phases=4 Linecode=102 Length=0.5 Units=m
New Line.fuse110 Bus1=2686.1.2.3.4 Bus2=1230.1.2.3.4 phases=4 Linecode=102 Length=0.5 Units=m
New Line.fuse111 Bus1=299.1.2.3.4 Bus2=2591.1.2.3.4 phases=4 Linecode=102 Length=0.5 Units=m
New Line.fuse112 Bus1=1363.1.2.3.4 Bus2=2698.1.2.3.4 phases=4 Linecode=102 Length=0.5 Units=m
New Line.fuse113 Bus1=1344.1.2.3.4 Bus2=2696.1.2.3.4 phases=4 Linecode=102 Length=0.5 Units=m
New Line.fuse114 Bus1=351.1.2.3.4 Bus2=2603.1.2.3.4 phases=4 Linecode=102 Length=0.5 Units=m
New Line.fuse115 Bus1=2676.1.2.3.4 Bus2=1090.1.2.3.4 phases=4 Linecode=102 Length=0.5 Units=m
New Line.fuse116 Bus1=329.1.2.3.4 Bus2=2598.1.2.3.4 phases=4 Linecode=102 Length=0.5 Units=m
New Line.fuse117 Bus1=353.1.2.3.4 Bus2=2602.1.2.3.4 phases=4 Linecode=102 Length=0.5 Units=m
!New Line.fuse118 Bus1=400.1.2.3.4 Bus2=444.1.2.3.4 phases=4 Linecode=102 Length=0.5 Units=m
!New Line.fuse119 Bus1=549.1.2.3.4 Bus2=625.1.2.3.4 phases=4 Linecode=102 Length=0.5 Units=m
!New Line.fuse120 Bus1=864.1.2.3.4 Bus2=403.1.2.3.4 phases=4 Linecode=102 Length=0.5 Units=m
New Line.fuse121 Bus1=2613.1.2.3.4 Bus2=425.1.2.3.4 phases=4 Linecode=102 Length=0.5 Units=m
!New Line.fuse122 Bus1=458.1.2.3.4 Bus2=439.1.2.3.4 phases=4 Linecode=102 Length=0.5 Units=m
!New Line.fuse123 Bus1=453.1.2.3.4 Bus2=.1.2.3.4 phases=4 Linecode=102 Length=0.5 Units=m
New Line.fuse124 Bus1=416.1.2.3.4 Bus2=2609.1.2.3.4 phases=4 Linecode=102 Length=0.5 Units=m
!New Line.fuse125 Bus1=476.1.2.3.4 Bus2=623.1.2.3.4 phases=4 Linecode=102 Length=0.5 Units=m
New Line.fuse126 Bus1=2805.1.2.3.4 Bus2=2027.1.2.3.4 phases=4 Linecode=102 Length=0.5 Units=m
New Line.fuse127 Bus1=2806.1.2.3.4 Bus2=2028.1.2.3.4 phases=4 Linecode=102 Length=0.5 Units=m
New Line.fuse128 Bus1=1796.1.2.3.4 Bus2=2767.1.2.3.4 phases=4 Linecode=102 Length=0.5 Units=m
New Line.fuse129 Bus1=2766.1.2.3.4 Bus2=1798.1.2.3.4 phases=4 Linecode=102 Length=0.5 Units=m
New Line.fuse130 Bus1=2768.1.2.3.4 Bus2=1801.1.2.3.4 phases=4 Linecode=102 Length=0.5 Units=m
New Line.fuse131 Bus1=2769.1.2.3.4 Bus2=1802.1.2.3.4 phases=4 Linecode=102 Length=0.5 Units=m
New Line.fuse132 Bus1=1298.1.2.3.4 Bus2=2693.1.2.3.4 phases=4 Linecode=102 Length=0.5 Units=m
!New Line.fuse133 Bus1=1341.1.2.3.4 Bus2=1295.1.2.3.4 phases=4 Linecode=102 Length=0.5 Units=m
New Line.fuse134 Bus1=1296.1.2.3.4 Bus2=2694.1.2.3.4 phases=4 Linecode=102 Length=0.5 Units=m
!New Line.fuse135 Bus1=1210.1.2.3.4 Bus2=1505.1.2.3.4 phases=4 Linecode=102 Length=0.5 Units=m
